power-flow-agent/results/ieee14/2026-09-14/no-llm/rule_based/traces/17_case14-multistep-026-s0.transcript.txt
==============================================================================
TRANSCRIPT  rule_based  |  none:rule_based  |  case14  |  case14-multistep-026-s0  run 0
==============================================================================
date: 2026-09-14   seed: 0   difficulty: multistep   tool variant: None

[system]   no LLM; deterministic parser (baselines/rule_based.py)

[user]
Load the 14-bus test case (case14), disconnect the line between bus 2 and bus 4, then rerun the power flow, then report the bus with the lowest voltage magnitude.

[planner output]
[
 {
  "tool": "load_case",
  "args": {
   "case_name": "case14"
  }
 },
 {
  "tool": "disconnect_line",
  "args": {
   "from_bus": 2,
   "to_bus": 4
  }
 },
 {
  "tool": "run_powerflow",
  "args": {},
  "derive": {
   "kind": "min_voltage_bus"
  }
 }
]

--- round 1 ---
[tool load_case]   (gate: not applied)
{"case_name": "case14", "n_buses": 14, "n_generators": 5, "n_lines": 20, "n_loads": 11, "total_load_mw": 252.27691886542414, "total_gen_capacity_mw": 772.4000000000001}
[tool disconnect_line]   (gate: pass)
{"case_name": "case14", "converged": true, "bus_voltages": [{"bus_id": 1, "vm_pu": 1.06, "va_deg": 0.0, "is_violation": true, "violation_type": "overvoltage"}, {"bus_id": 2, "vm_pu": 1.0449999999999997, "va_deg": -4.2880027379393635, "is_violation": false, "violation_type": null}, {"bus_id": 3, "vm_pu": 1.0099999999999998, "va_deg": -13.752462410664865, "is_violation": false, "violation_type": null}, {"bus_id": 4, "vm_pu": 1.0084559489766285, "va_deg": -12.794960237085174, "is_violation": false, "violation_type": null}, {"bus_id": 5, "vm_pu": 1.0123724941093482, "va_deg": -10.40545861670212, "is_violation": false, "violation_type": null}, {"bus_id": 6, "vm_pu": 1.0699999999999998, "va_deg": -16.08632358257971, "is_violation": true, "violation_type": "overvoltage"}, {"bus_id": 7, "vm_pu": 1.0576483733742463, "va_deg": -15.617297783824016, "is_violation": true, "violation_type": "overvoltage"}, {"bus_id": 8, "vm_pu": 1.0900000000000003, "va_deg": -15.617297783824016, "is_violation": true, "violation_type": "overvoltage"}, {"bus_id": 9, "vm_pu": 1.0523854439534843, "va_deg": -17.07161712954454, "is_violation": true, "violation_type": "overvoltage"}, {"bus_id": 10, "vm_pu": 1.0476462809576146, "va_deg": -17.196002602077584, "is_violation": false, "violation_type": null}, {"bus_id": 11, "vm_pu": 1.0550793740982727, "va_deg": -16.774335903507186, "is_violation": true, "violation_type": "overvoltage"}, {"bus_id": 12, "vm_pu": 1.0549525316460955, "va_deg": -16.964461518662137, "is_violation": true, "violation_type": "overvoltage"}, {"bus_id": 13, "vm_pu": 1.0495847590453833, "va_deg": -17.068195379392137, "is_violation": false, "violation_type": null}, {"bus_id": 14, "vm_pu": 1.03236387127815, "va_deg": -18.116537272125594, "is_violation": false, "violation_type": null}], "line_flows": [{"line_id": 0, "from_bus": 1, "to_bus": 2, "p_from_mw": 135.91159796315796, "q_from_mvar": -15.369560181445074, "loading_percent": 1.3033911800669917, "is_violation": false}, {"line_id": 1, "from_bus": 1, "to_bus": 5, "p_from_mw": 89.07152613538753, "q_from_mvar": 6.206518627130593, "loading_percent": 0.8514069342208074, "is_violation": false}, {"line_id": 2, "from_bus": 2, "to_bus": 3, "p_from_mw": 88.77304361101714, "q_from_mvar": 2.2695521495260738, "loading_percent": 0.8583640259833134, "is_violation": false}, {"line_id": 3, "from_bus": 2, "to_bus": 4, "p_from_mw": 0.0, "q_from_mvar": 0.0, "loading_percent": 0.0, "is_violation": false}, {"line_id": 4, "from_bus": 2, "to_bus": 5, "p_from_mw": 65.38150878294142, "q_from_mvar": -0.22982442486125035, "loading_percent": 0.6319840772598878, "is_violation": false}, {"line_id": 5, "from_bus": 3, "to_bus": 4, "p_from_mw": -8.289481266623126, "q_from_mvar": 3.589957022574138, "loading_percent": 0.09618242612394444, "is_violation": false}, {"line_id": 6, "from_bus": 4, "to_bus": 5, "p_from_mw": -93.94451264006196, "q_from_mvar": 22.51162319931105, "loading_percent": 0.9676164820603292, "is_violation": false}, {"line_id": 7, "from_bus": 6, "to_bus": 11, "p_from_mw": 8.68706259530129, "q_from_mvar": 3.919300905561281, "loading_percent": 0.08996758538305459, "is_violation": false}, {"line_id": 8, "from_bus": 6, "to_bus": 12, "p_from_mw": 7.971496592556767, "q_from_mvar": 2.5157729146831116, "loading_percent": 0.0789111605244172, "is_violation": false}, {"line_id": 9, "from_bus": 6, "to_bus": 13, "p_from_mw": 18.565092249078713, "q_from_mvar": 7.467875135467987, "loading_percent": 0.18890580873727522, "is_violation": false}, {"line_id": 10, "from_bus": 9, "to_bus": 10, "p_from_mw": 4.428105053851906, "q_from_mvar": 4.238395291123038, "loading_percent": 0.05883323914770651, "is_violation": false}, {"line_id": 11, "from_bus": 9, "to_bus": 14, "p_from_mw": 9.027537496311076, "q_from_mvar": 3.615718226492246, "loading_percent": 0.09333968405584736, "is_violation": false}, {"line_id": 12, "from_bus": 10, "to_bus": 11, "p_from_mw": -5.040733284231124, "q_from_mvar": -1.8854568492827815, "loading_percent": 0.05188943550931577, "is_violation": false}, {"line_id": 13, "from_bus": 12, "to_bus": 13, "p_from_mw": 1.8613749402537034, "q_from_mvar": 0.7766712645725626, "loading_percent": 0.01931162790892213, "is_violation": false}, {"line_id": 14, "from_bus": 13, "to_bus": 14, "p_from_mw": 6.66505706112121, "q_from_mvar": 1.9721770900112103, "loading_percent": 0.06689241908028755, "is_violation": false}, {"line_id": 100000, "from_bus": 4, "to_bus": 7, "p_from_mw": 25.678785939836686, "q_from_mvar": -12.437799411047596, "loading_percent": 0.2857896242987363, "is_violation": false}, {"line_id": 100001, "from_bus": 4, "to_bus": 9, "p_from_mw": 14.684901948729632, "q_from_mvar": -1.6348520345806001, "loading_percent": 0.14799727730870427, "is_violation": false}, {"line_id": 100002, "from_bus": 5, "to_bus": 6, "p_from_mw": 45.65130816945663, "q_from_mvar": 9.263177282328192, "loading_percent": 0.46477115172163863, "is_violation": false}, {"line_id": 100003, "from_bus": 7, "to_bus": 8, "p_from_mw": 1.4257369061071643e-14, "q_from_mvar": -19.424720565847085, "loading_percent": 0.18551467915461153, "is_violation": false}, {"line_id": 100004, "from_bus": 7, "to_bus": 9, "p_from_mw": 25.678785939079123, "q_from_mvar": 5.385754327380816, "loading_percent": 0.25057973652937743, "is_violation": false}], "total_generation_mw": 266.8621972410839, "total_load_mw": 252.27691886542414, "total_loss_mw": 14.585278397023178, "voltage_violations": [{"bus_id": 1, "vm_pu": 1.06, "va_deg": 0.0, "is_violation": true, "violation_type": "overvoltage"}, {"bus_id": 6, "vm_pu": 1.0699999999999998, "va_deg": -16.08632358257971, "is_violation": true, "violation_type": "overvoltage"}, {"bus_id": 7, "vm_pu": 1.0576483733742463, "va_deg": -15.617297783824016, "is_violation": true, "violation_type": "overvoltage"}, {"bus_id": 8, "vm_pu": 1.0900000000000003, "va_deg": -15.617297783824016, "is_violation": true, "violation_type": "overvoltage"}, {"bus_id": 9, "vm_pu": 1.0523854439534843, "va_deg": -17.07161712954454, "is_violation": true, "violation_type": "overvoltage"}, {"bus_id": 11, "vm_pu": 1.0550793740982727, "va_deg": -16.774335903507186, "is_violation": true, "violation_type": "overvoltage"}, {"bus_id": 12, "vm_pu": 1.0549525316460955, "va_deg": -16.964461518662137, "is_violation": true, "violation_type": "overvoltage"}], "thermal_violations": [], "summary_text": "", "solver_backend": "pandapower", "llm_prompt": null, "llm_response": null}
[tool run_powerflow]   (gate: pass)
{"case_name": "case14", "converged": true, "bus_voltages": [{"bus_id": 1, "vm_pu": 1.06, "va_deg": 0.0, "is_violation": true, "violation_type": "overvoltage"}, {"bus_id": 2, "vm_pu": 1.0449999999999997, "va_deg": -4.2880027379393635, "is_violation": false, "violation_type": null}, {"bus_id": 3, "vm_pu": 1.0099999999999998, "va_deg": -13.752462410664865, "is_violation": false, "violation_type": null}, {"bus_id": 4, "vm_pu": 1.0084559489766285, "va_deg": -12.794960237085174, "is_violation": false, "violation_type": null}, {"bus_id": 5, "vm_pu": 1.0123724941093482, "va_deg": -10.40545861670212, "is_violation": false, "violation_type": null}, {"bus_id": 6, "vm_pu": 1.0699999999999998, "va_deg": -16.08632358257971, "is_violation": true, "violation_type": "overvoltage"}, {"bus_id": 7, "vm_pu": 1.0576483733742463, "va_deg": -15.617297783824016, "is_violation": true, "violation_type": "overvoltage"}, {"bus_id": 8, "vm_pu": 1.0900000000000003, "va_deg": -15.617297783824016, "is_violation": true, "violation_type": "overvoltage"}, {"bus_id": 9, "vm_pu": 1.0523854439534843, "va_deg": -17.07161712954454, "is_violation": true, "violation_type": "overvoltage"}, {"bus_id": 10, "vm_pu": 1.0476462809576146, "va_deg": -17.196002602077584, "is_violation": false, "violation_type": null}, {"bus_id": 11, "vm_pu": 1.0550793740982727, "va_deg": -16.774335903507186, "is_violation": true, "violation_type": "overvoltage"}, {"bus_id": 12, "vm_pu": 1.0549525316460955, "va_deg": -16.964461518662137, "is_violation": true, "violation_type": "overvoltage"}, {"bus_id": 13, "vm_pu": 1.0495847590453833, "va_deg": -17.068195379392137, "is_violation": false, "violation_type": null}, {"bus_id": 14, "vm_pu": 1.03236387127815, "va_deg": -18.116537272125594, "is_violation": false, "violation_type": null}], "line_flows": [{"line_id": 0, "from_bus": 1, "to_bus": 2, "p_from_mw": 135.91159796315796, "q_from_mvar": -15.369560181445074, "loading_percent": 1.3033911800669917, "is_violation": false}, {"line_id": 1, "from_bus": 1, "to_bus": 5, "p_from_mw": 89.07152613538753, "q_from_mvar": 6.206518627130593, "loading_percent": 0.8514069342208074, "is_violation": false}, {"line_id": 2, "from_bus": 2, "to_bus": 3, "p_from_mw": 88.77304361101714, "q_from_mvar": 2.2695521495260738, "loading_percent": 0.8583640259833134, "is_violation": false}, {"line_id": 3, "from_bus": 2, "to_bus": 4, "p_from_mw": 0.0, "q_from_mvar": 0.0, "loading_percent": 0.0, "is_violation": false}, {"line_id": 4, "from_bus": 2, "to_bus": 5, "p_from_mw": 65.38150878294142, "q_from_mvar": -0.22982442486125035, "loading_percent": 0.6319840772598878, "is_violation": false}, {"line_id": 5, "from_bus": 3, "to_bus": 4, "p_from_mw": -8.289481266623126, "q_from_mvar": 3.589957022574138, "loading_percent": 0.09618242612394444, "is_violation": false}, {"line_id": 6, "from_bus": 4, "to_bus": 5, "p_from_mw": -93.94451264006196, "q_from_mvar": 22.51162319931105, "loading_percent": 0.9676164820603292, "is_violation": false}, {"line_id": 7, "from_bus": 6, "to_bus": 11, "p_from_mw": 8.68706259530129, "q_from_mvar": 3.919300905561281, "loading_percent": 0.08996758538305459, "is_violation": false}, {"line_id": 8, "from_bus": 6, "to_bus": 12, "p_from_mw": 7.971496592556767, "q_from_mvar": 2.5157729146831116, "loading_percent": 0.0789111605244172, "is_violation": false}, {"line_id": 9, "from_bus": 6, "to_bus": 13, "p_from_mw": 18.565092249078713, "q_from_mvar": 7.467875135467987, "loading_percent": 0.18890580873727522, "is_violation": false}, {"line_id": 10, "from_bus": 9, "to_bus": 10, "p_from_mw": 4.428105053851906, "q_from_mvar": 4.238395291123038, "loading_percent": 0.05883323914770651, "is_violation": false}, {"line_id": 11, "from_bus": 9, "to_bus": 14, "p_from_mw": 9.027537496311076, "q_from_mvar": 3.615718226492246, "loading_percent": 0.09333968405584736, "is_violation": false}, {"line_id": 12, "from_bus": 10, "to_bus": 11, "p_from_mw": -5.040733284231124, "q_from_mvar": -1.8854568492827815, "loading_percent": 0.05188943550931577, "is_violation": false}, {"line_id": 13, "from_bus": 12, "to_bus": 13, "p_from_mw": 1.8613749402537034, "q_from_mvar": 0.7766712645725626, "loading_percent": 0.01931162790892213, "is_violation": false}, {"line_id": 14, "from_bus": 13, "to_bus": 14, "p_from_mw": 6.66505706112121, "q_from_mvar": 1.9721770900112103, "loading_percent": 0.06689241908028755, "is_violation": false}, {"line_id": 100000, "from_bus": 4, "to_bus": 7, "p_from_mw": 25.678785939836686, "q_from_mvar": -12.437799411047596, "loading_percent": 0.2857896242987363, "is_violation": false}, {"line_id": 100001, "from_bus": 4, "to_bus": 9, "p_from_mw": 14.684901948729632, "q_from_mvar": -1.6348520345806001, "loading_percent": 0.14799727730870427, "is_violation": false}, {"line_id": 100002, "from_bus": 5, "to_bus": 6, "p_from_mw": 45.65130816945663, "q_from_mvar": 9.263177282328192, "loading_percent": 0.46477115172163863, "is_violation": false}, {"line_id": 100003, "from_bus": 7, "to_bus": 8, "p_from_mw": 1.4257369061071643e-14, "q_from_mvar": -19.424720565847085, "loading_percent": 0.18551467915461153, "is_violation": false}, {"line_id": 100004, "from_bus": 7, "to_bus": 9, "p_from_mw": 25.678785939079123, "q_from_mvar": 5.385754327380816, "loading_percent": 0.25057973652937743, "is_violation": false}], "total_generation_mw": 266.8621972410839, "total_load_mw": 252.27691886542414, "total_loss_mw": 14.585278397023178, "voltage_violations": [{"bus_id": 1, "vm_pu": 1.06, "va_deg": 0.0, "is_violation": true, "violation_type": "overvoltage"}, {"bus_id": 6, "vm_pu": 1.0699999999999998, "va_deg": -16.08632358257971, "is_violation": true, "violation_type": "overvoltage"}, {"bus_id": 7, "vm_pu": 1.0576483733742463, "va_deg": -15.617297783824016, "is_violation": true, "violation_type": "overvoltage"}, {"bus_id": 8, "vm_pu": 1.0900000000000003, "va_deg": -15.617297783824016, "is_violation": true, "violation_type": "overvoltage"}, {"bus_id": 9, "vm_pu": 1.0523854439534843, "va_deg": -17.07161712954454, "is_violation": true, "violation_type": "overvoltage"}, {"bus_id": 11, "vm_pu": 1.0550793740982727, "va_deg": -16.774335903507186, "is_violation": true, "violation_type": "overvoltage"}, {"bus_id": 12, "vm_pu": 1.0549525316460955, "va_deg": -16.964461518662137, "is_violation": true, "violation_type": "overvoltage"}], "thermal_violations": [], "summary_text": "", "solver_backend": "pandapower", "llm_prompt": null, "llm_response": null}

[final answer]
Loaded case14 (14 buses, 20 branches).
disconnect_line: converged; load 252.277 MW, generation 266.862 MW, losses 14.585 MW; 7 voltage and 0 thermal violation(s).
run_powerflow: converged; load 252.277 MW, generation 266.862 MW, losses 14.585 MW; 7 voltage and 0 thermal violation(s).
Minimum voltage: bus 4 at 1.0085 p.u.
